data_image0
_chemical_formula_structural       O8V2Bi2
_chemical_formula_sum              "O8 V2 Bi2"
_cell_length_a       6.89243131341987
_cell_length_b       6.892431313419776
_cell_length_c       5.136939544496899
_cell_angle_alpha    68.12094595250022
_cell_angle_beta     68.1209459524954
_cell_angle_gamma    116.3952497215518

_space_group_name_H-M_alt    "P 1"
_space_group_IT_number       1

loop_
  _space_group_symop_operation_xyz
  'x, y, z'

loop_
  _atom_site_type_symbol
  _atom_site_label
  _atom_site_symmetry_multiplicity
  _atom_site_fract_x
  _atom_site_fract_y
  _atom_site_fract_z
  _atom_site_occupancy
  O   O1        1.0  0.29679586632501953  0.7058886319216126  0.641843047240926  1.0000
  O   O2        1.0  0.9386521624192339  0.8477532846712065  0.855465463318768  1.0000
  O   O3        1.0  0.7941113680784083  0.20320413367500073  0.8581569527590082  1.0000
  O   O4        1.0  0.6522467153287883  0.5613478375807767  0.6445345366811817  1.0000
  O   O5        1.0  0.7032041336749602  0.2941113680784101  0.3581569527589986  1.0000
  O   O6        1.0  0.061347837580818035  0.1522467153288269  0.1445345366811301  1.0000
  O   O7        1.0  0.20588863192158924  0.7967958663250396  0.14184304724095065  1.0000
  O   O8        1.0  0.3477532846711893  0.4386521624191817  0.35546546331880585  1.0000
  V   V1        1.0  0.12500223000184874  0.374997769998164  0.7499999999999727  1.0000
  V   V2        1.0  0.8749977699981539  0.6250022300018532  0.24999999999996808  1.0000
  Bi  Bi1       1.0  0.6250038499497035  0.8749961500502889  0.7499999999999732  1.0000
  Bi  Bi2       1.0  0.37499615005029907  0.12500384994972785  0.24999999999996808  1.0000
