data_image0
_chemical_formula_structural       O16V4Bi4
_chemical_formula_sum              "O16 V4 Bi4"
_cell_length_a       5.1363986869210025
_cell_length_b       5.135967758296855
_cell_length_c       11.717882734015193
_cell_angle_alpha    89.99999999999996
_cell_angle_beta     89.99999999999999
_cell_angle_gamma    90.00247137404703

_space_group_name_H-M_alt    "P 1"
_space_group_IT_number       1

loop_
  _space_group_symop_operation_xyz
  'x, y, z'

loop_
  _atom_site_type_symbol
  _atom_site_label
  _atom_site_symmetry_multiplicity
  _atom_site_fract_x
  _atom_site_fract_y
  _atom_site_fract_z
  _atom_site_occupancy
  O   O1        1.0  0.14319012484509305  0.5013618499839998  0.2045438022353483  1.0000
  O   O2        1.0  0.8568098751548466  0.49863815001594725  0.7954561977646754  1.0000
  O   O3        1.0  0.8568098751548724  0.9986381500160075  0.20454380223532842  1.0000
  O   O4        1.0  0.14319012484516042  0.001361849984010649  0.7954561977646926  1.0000
  O   O5        1.0  0.6431901248451464  0.0013618499840285215  0.7045438022352931  1.0000
  O   O6        1.0  0.35680987515472057  0.9986381500159126  0.2954561977647392  1.0000
  O   O7        1.0  0.3568098751547391  0.49863815001592793  0.7045438022353162  1.0000
  O   O8        1.0  0.6431901248451939  0.501361849984087  0.2954561977647176  1.0000
  O   O9        1.0  0.2486592425880745  0.3932043501598665  0.4545403328849114  1.0000
  O   O10       1.0  0.7513407574118584  0.606795649840289  0.5454596671150077  1.0000
  O   O11       1.0  0.7513407574118808  0.10679564984003882  0.45454033288492507  1.0000
  O   O12       1.0  0.24865924258811678  0.8932043501597763  0.545459667115015  1.0000
  O   O13       1.0  0.7486592425880486  0.8932043501599409  0.9545403328849481  1.0000
  O   O14       1.0  0.25134075741187883  0.10679564984015474  0.045459667115031556  1.0000
  O   O15       1.0  0.25134075741187434  0.6067956498401121  0.9545403328849343  1.0000
  O   O16       1.0  0.7486592425880481  0.3932043501597596  0.045459667115029904  1.0000
  V   V1        1.0  0.999999999999993  0.25000000000000216  0.12499865231713511  1.0000
  V   V2        1.0  0.9999999999999549  0.7500000000000058  0.8750013476828757  1.0000
  V   V3        1.0  0.49999999999994627  0.7499999999999687  0.6249986523170896  1.0000
  V   V4        1.0  0.49999999999999745  0.24999999999998235  0.3750013476828906  1.0000
  Bi  Bi1       1.0  0.9999999999999626  0.25000000000000794  0.6249962002924102  1.0000
  Bi  Bi2       1.0  0.9999999999999575  0.7499999999999906  0.37500379970762215  1.0000
  Bi  Bi3       1.0  0.4999999999999658  0.749999999999971  0.12499620029223397  1.0000
  Bi  Bi4       1.0  0.5000000000000095  0.24999999999998346  0.8750037997077096  1.0000
