data_image0
_chemical_formula_structural       O8V2Bi2
_chemical_formula_sum              "O8 V2 Bi2"
_cell_length_a       6.8928932619916035
_cell_length_b       6.892893263073697
_cell_length_c       6.892893244613279
_cell_angle_alpha    136.2489031729111
_cell_angle_beta     136.2489005277002
_cell_angle_gamma    63.59576307937006

_space_group_name_H-M_alt    "P 1"
_space_group_IT_number       1

loop_
  _space_group_symop_operation_xyz
  'x, y, z'

loop_
  _atom_site_type_symbol
  _atom_site_label
  _atom_site_symmetry_multiplicity
  _atom_site_fract_x
  _atom_site_fract_y
  _atom_site_fract_z
  _atom_site_occupancy
  O   O1        1.0  0.7058853209032033  0.34773855004751497  0.6445336747508965  1.0000
  O   O2        1.0  0.20320489078147372  0.0613516409608837  0.8554663402674718  1.0000
  O   O3        1.0  0.8477385332107464  0.7032048790753264  0.6418532331824996  1.0000
  O   O4        1.0  0.5613516592704504  0.20588530984947861  0.858146792057098  1.0000
  O   O5        1.0  0.2941146790967833  0.6522614499524918  0.3554663252490757  1.0000
  O   O6        1.0  0.7967951092185076  0.9386483590391146  0.14453365973250662  1.0000
  O   O7        1.0  0.15226146678922825  0.2967951209246709  0.35814676681747765  1.0000
  O   O8        1.0  0.4386483407294927  0.7941146901505247  0.14185320794285244  1.0000
  V   V1        1.0  0.37500001067449684  0.12500000926273747  0.2500000074555251  1.0000
  V   V2        1.0  0.6249999893254847  0.874999990737271  0.7499999925444579  1.0000
  Bi  Bi1       1.0  0.8749999976998266  0.6250000034628758  0.2499999972892952  1.0000
  Bi  Bi2       1.0  0.12500000230015057  0.37499999653711574  0.7500000027106674  1.0000
