data_image0
_chemical_formula_structural       O16V4Bi4
_chemical_formula_sum              "O16 V4 Bi4"
_cell_length_a       5.13623782111994
_cell_length_b       5.136237821117138
_cell_length_c       11.717710660663249
_cell_angle_alpha    89.99999999999554
_cell_angle_beta     90.0
_cell_angle_gamma    90.00000000000036

_space_group_name_H-M_alt    "P 1"
_space_group_IT_number       1

loop_
  _space_group_symop_operation_xyz
  'x, y, z'

loop_
  _atom_site_type_symbol
  _atom_site_label
  _atom_site_symmetry_multiplicity
  _atom_site_fract_x
  _atom_site_fract_y
  _atom_site_fract_z
  _atom_site_occupancy
  O   O1        1.0  0.7486478959335718  0.14320539082411274  0.07953440488777525  1.0000
  O   O2        1.0  0.2486478959335736  0.6432053908241107  0.57953440488778  1.0000
  O   O3        1.0  0.7513521040664043  0.356794609175868  0.5795344048877855  1.0000
  O   O4        1.0  0.2513521040664206  0.8567946091758818  0.07953440488777812  1.0000
  O   O5        1.0  0.8567946091759137  0.24864789593350692  0.32953440488777663  1.0000
  O   O6        1.0  0.35679460917588585  0.7486478959335038  0.8295344048877745  1.0000
  O   O7        1.0  0.6432053908240912  0.2513521040664696  0.8295344048877903  1.0000
  O   O8        1.0  0.14320539082409295  0.751352104066473  0.329534404887779  1.0000
  O   O9        1.0  0.2513521040664141  0.3567946091758655  0.17046559511223042  1.0000
  O   O10       1.0  0.7513521040664158  0.8567946091758674  0.6704655951122409  1.0000
  O   O11       1.0  0.24864789593358327  0.14320539082411887  0.670465595112229  1.0000
  O   O12       1.0  0.7486478959335776  0.6432053908241224  0.1704655951122271  1.0000
  O   O13       1.0  0.14320539082411374  0.2513521040664655  0.9204655951122297  1.0000
  O   O14       1.0  0.6432053908240899  0.7513521040664639  0.4204655951122338  1.0000
  O   O15       1.0  0.35679460917590794  0.24864789593351336  0.4204655951122191  1.0000
  O   O16       1.0  0.8567946091759  0.7486478959335129  0.9204655951122299  1.0000
  V   V1        1.0  0.9999999999999882  0.999999999999987  2.167611852634121e-14  1.0000
  V   V2        1.0  0.4999999999999817  0.49999999999997974  0.500000000000022  1.0000
  V   V3        1.0  1.504813913182221e-15  0.5000000000000029  0.2499999999999841  1.0000
  V   V4        1.0  0.5000000000000012  1.6621750432911208e-15  0.7499999999999951  1.0000
  Bi  Bi1       1.0  0.9999999999999977  0.9999999999999983  0.4999999999999926  1.0000
  Bi  Bi2       1.0  0.49999999999999123  0.499999999999986  0.9999999999999862  1.0000
  Bi  Bi3       1.0  0.9999999999999899  0.4999999999999936  0.7500000000000215  1.0000
  Bi  Bi4       1.0  0.4999999999999862  0.0  0.25000000000003014  1.0000
